38
INSERT TITLE CARD HERE
O   	    0.00000	    0.00000	    0.00000
O   	    0.00000	    0.00000	    2.27914
O   	    0.00000	    4.11391	   -0.11640
O   	    1.04508	    5.32414	   -2.45550
O   	    0.01233	    1.85561	    0.76281
O   	    2.04568	    8.91525	   -2.54177
O   	   -0.68039	   -0.45458	    1.61102
C   	    0.46678	    3.39432	    0.25529
C   	    1.43134	    6.63127	   -2.32378
C   	    1.23122	    3.04013	    1.75466
C   	    2.02657	   -0.29835	   -7.13678
C   	    1.22075	    6.23866	    0.53575
C   	    0.80548	    1.62248	   -2.23485
C   	    1.55823	    2.75213	   -4.45069
C   	   -3.32637	    2.97775	   11.73018
C   	    2.44692	    3.08234	   -6.60490
C   	    2.09087	    4.57805	   -2.16200
C   	   -3.62141	    3.09409	   12.97879
C   	    3.27214	    4.52896	   -6.28165
C   	    2.68916	    4.91403	   -3.20960
H   	   -2.72705	    3.37337	   11.70912
H   	    4.54426	    6.98242	  -10.70839
H   	   -0.04425	    4.55112	    2.21069
H   	   -2.81632	    3.75111	   10.63438
H   	    3.70604	    6.44036	   -8.43763
H   	   -1.43674	    3.97611	    4.96199
H   	   -3.35843	    3.59590	   12.64301
H   	    4.05910	    5.75777	   -7.83674
H   	   -6.42431	    3.54355	    5.66355
H   	  291.59329	    6.04061	  113.41995
H   	    6.18096	    5.94017	   -1.12649
H   	   -1.06911	    5.32401	    4.34447
H   	  290.87814	    5.98822	  113.00194
H   	   -0.87310	    7.35649	    0.27422
H   	    3.20094	    7.53216	    3.02006
H   	  292.93199	    5.99359	  113.72775
H   	   -2.98822	    7.35015	    1.45716
H   	    3.54646	    8.94679	    4.02399
