38
INSERT TITLE CARD HERE
O   	    0.00000	    0.00000	    0.00000
O   	    0.00000	    0.00000	    2.27914
O   	    0.00000	    4.11391	   -0.11640
O   	   -2.00614	    1.76354	   -2.45550
O   	    0.98396	   -1.80071	    4.22194
O   	    1.12492	   -0.16125	    4.06381
O   	   -4.08745	    5.23230	    3.69326
C   	    3.32846	   -1.73138	    4.44194
C   	    1.55419	    2.99503	    2.03943
C   	   -3.46411	    8.49877	    2.09870
C   	    4.07447	   -1.41762	    2.09194
C   	    1.30469	    0.16485	    1.80573
C   	    0.12294	    6.75869	    0.61931
C   	    3.34926	   -5.65502	    1.26890
C   	    4.26127	   -0.75858	    0.11225
C   	    0.37743	   11.58705	   -0.68968
C   	    2.80370	   -3.48987	    0.39807
C   	    3.67811	    0.62868	    0.17971
C   	    1.40789	   12.52182	   -0.61658
C   	    1.91266	   -4.55619	    0.29648
H   	   -1.60970	   -0.92893	   -2.16180
H   	   -5.78414	   11.87483	   -0.43232
H   	    2.00242	   -6.85590	   -5.95387
H   	   -2.16240	   -2.68603	   -0.41716
H   	   -6.07614	    9.08031	    2.31962
H   	    5.39408	   -9.10872	   -4.70818
H   	   -0.09261	   -3.39745	   -1.52949
H   	   -7.16324	   10.03017	    6.31005
H   	    2.97508	  -12.27298	   -5.37418
H   	   -4.87977	   -5.35056	   -5.92646
H   	   -7.88367	    6.52642	    0.50726
H   	    0.80388	  -15.04603	  -10.89715
H   	   -2.36298	   -3.93768	  -10.38034
H   	   -9.80869	    6.29627	   -6.88356
H   	    0.47527	  -10.57949	  -12.70556
H   	    1.91569	   -3.89837	  -10.66665
H   	  -13.62067	    4.49161	   -4.78123
H   	   -0.10080	   -9.17646	  -15.08439
